Program Version,EnergyPlus, Version 25.1.0-68a4a7c774, YMD=2025.06.26 10:09,
   ** Warning ** Weather file location will be used rather than entered (IDF) Location object.
   **   ~~~   ** ..Location object=SITE LOCATION
   **   ~~~   ** ..Weather File Location=Allentown PA USA TMY--14737 WMO#=725170
   **   ~~~   ** ..due to location differences, Latitude difference=[0.65] degrees, Longitude difference=[0.43] degrees.
   **   ~~~   ** ..Time Zone difference=[0.0] hour(s), Elevation difference=[41.50] percent, [83.00] meters.
   ** Warning ** GetHTSurfaceData: Surfaces with interface to Ground found but no "Ground Temperatures" were input.
   **   ~~~   ** Found first in surface=FLOOR
   **   ~~~   ** Defaults, constant throughout the year of (18.0) will be used.
   ** Warning ** Indicated Zone Volume <= 0.0 for Zone=MAINZONE
   **   ~~~   ** The calculated Zone Volume was=-7988.00
   **   ~~~   ** The simulation will continue with the Zone Volume set to 10.0 m3. 
   **   ~~~   ** ...use Output:Diagnostics,DisplayExtraWarnings; to show more details on individual zones.
   ************* Testing Individual Branch Integrity
   ************* All Branches passed integrity testing
   ************* Testing Individual Supply Air Path Integrity
   ************* All Supply Air Paths passed integrity testing
   ************* Testing Individual Return Air Path Integrity
   ************* All Return Air Paths passed integrity testing
   ************* No node connection errors were found.
   ************* Beginning Simulation
   ************* Simulation Error Summary *************
   ** Warning ** The following Report Variables were requested but not generated -- check.rdd file
   **   ~~~   ** Either the IDF did not contain these elements, the variable name is misspelled,
   **   ~~~   ** or the requested variable is an advanced output which requires Output : Diagnostics, DisplayAdvancedReportVariables;
   ************* Key=*, VarName=ZONE INFILTRATION SENSIBLE HEAT GAIN, Frequency=Hourly
   ************* Key=*, VarName=ZONE INFILTRATION AIR CHANGE RATE, Frequency=Hourly
   ************* EnergyPlus Warmup Error Summary. During Warmup: 0 Warning; 0 Severe Errors.
   ************* EnergyPlus Sizing Error Summary. During Sizing: 0 Warning; 0 Severe Errors.
   ************* EnergyPlus Completed Successfully-- 3 Warning; 0 Severe Errors; Elapsed Time=00hr 00min  0.06sec
